dynawo/sources/Modeler/DataInterface/PowSyblIIDM/test/resources/load_not_fictitious.xiidm
<?xml version="1.0" encoding="UTF-8"?>
<iidm:network xmlns:iidm="http://www.powsybl.org/schema/iidm/1_4" id="test" caseDate="2022-01-01T00:00:00.000+01:00" forecastDistance="0" sourceFormat="test">
    <iidm:substation id="S1" name="S1_NAME" country="FR" tso="TSO">
        <iidm:voltageLevel id="VL1" name="VL1_NAME" nominalV="382.0" lowVoltageLimit="340.0" highVoltageLimit="420.0" topologyKind="BUS_BREAKER">
            <iidm:busBreakerTopology>
                <iidm:bus id="VL1_BUS1"/>
            </iidm:busBreakerTopology>
            <iidm:load id="LOAD1" name="LOAD1_NAME" loadType="UNDEFINED" fictitious="false" p0="50.0" q0="40.0" bus="VL1_BUS1" connectableBus="VL1_BUS1"/>
        </iidm:voltageLevel>
    </iidm:substation>
</iidm:network>
